Version 4
SHEET 1 880 680
WIRE 96 32 -80 32
WIRE 192 32 96 32
WIRE 320 32 192 32
WIRE 320 96 320 32
WIRE 32 128 -32 128
WIRE 192 144 192 32
WIRE 32 160 32 128
WIRE -80 224 -80 208
WIRE 80 224 -80 224
WIRE 144 224 80 224
WIRE 320 240 320 176
WIRE 320 240 192 240
WIRE -80 272 -80 224
WIRE 144 272 0 272
WIRE 192 272 192 240
WIRE 192 272 144 272
WIRE 144 304 144 272
FLAG 144 304 0
FLAG 96 32 Vcell
FLAG 80 224 Vgate
FLAG 32 160 0
SYMBOL nmos 144 144 R0
SYMATTR InstName M1
SYMATTR Value irll110
SYMATTR Prefix X
SYMBOL pmos -32 208 R180
SYMATTR InstName M2
SYMATTR Value BSS84
SYMBOL res -96 16 R0
SYMATTR InstName R1
SYMATTR Value {R}
SYMATTR SpiceLine tol=1 pwr=0.1
SYMBOL res 16 256 R90
WINDOW 0 0 56 VBottom 2
WINDOW 3 32 56 VTop 2
SYMATTR InstName R2
SYMATTR Value 4000
SYMBOL voltage 320 80 R0
WINDOW 123 0 0 Left 0
WINDOW 39 24 124 Left 2
SYMATTR InstName V1
SYMATTR Value 4.2
SYMATTR SpiceLine Rser=0.049
TEXT 208 -8 Left 2 !.INCLUDE sihlr110.lib
TEXT -192 384 Left 2 !.op
TEXT -192 352 Left 2 !.step param R 1K 5K 100
